case123_8.m
function mpc = case_ieee123
%   Power flow data for IEEE 123 bus test case.
%   Please see CASEFORMAT for details on the case file format.
%
%	This testbed is distributed in the hope that it will be useful, but without any warranty.
%	We do request that publications in which this testbed is adopted, explicitly acknowledge that fact by citing:
%
%	S. Bolognani, S. Zampieri (2014)
%	"On the existence and linear approximation of the power flow solution in power distribution networks"
%	Preprint available at http://arxiv.org/abs/1403.5031

%% MATPOWER Case Format : Version 2
mpc.version = '2';

%%-----  Power Flow Data  -----%%
%% system MVA base
mpc.baseMVA = 1;

%% bus data
%	bus_i	type	Pd	Qd	Gs	Bs	area	Vm	Va	baseKV	zone	Vmax	Vmin
mpc.bus = [
	1	1	0.160	0.080	0.000	0.000	1	1	0	4.16	1	1.1	0.9	;
	7	1	0.020	0.010	0.000	0.000	1	1	0	4.16	1	1.1	0.9	;
	8	1	0.120	0.060	0.000	0.000	1	1	0	4.16	1	1.1	0.9	;
	13	1	0.100	0.050	0.000	0.000	1	1	0	4.16	1	1.1	0.9	;
	52	1	0.040	0.020	0.000	0.000	1	1	0	4.16	1	1.1	0.9	;
	53	1	0.040	0.020	0.000	0.000	1	1	0	4.16	1	1.1	0.9	;
	54	1	0.000	0.000	0.000	0.000	1	1	0	4.16	1	1.1	0.9	;
	55	1	0.020	0.010	0.000	0.000	1	1	0	4.16	1	1.1	0.9	;
	56	1	0.020	0.010	0.000	0.000	1	1	0	4.16	1	1.1	0.9	;
	57	1	0.040	0.020	0.000	0.000	1	1	0	4.16	1	1.1	0.9	;
	60	1	0.020	0.010	0.000	0.000	1	1	0	4.16	1	1.1	0.9	;
	62	1	0.040	0.020	0.000	0.000	1	1	0	4.16	1	1.1	0.9	;
	63	1	0.040	0.020	0.000	0.000	1	1	0	4.16	1	1.1	0.9	;
	64	1	0.075	0.035	0.000	0.000	1	1	0	4.16	1	1.1	0.9	;
	65	1	0.140	0.100	0.000	0.000	1	1	0	4.16	1	1.1	0.9	;
	66	1	0.075	0.035	0.000	0.000	1	1	0	4.16	1	1.1	0.9	;
	67	1	0.120	0.060	0.000	0.000	1	1	0	4.16	1	1.1	0.9	;
	72	1	0.120	0.060	0.000	0.000	1	1	0	4.16	1	1.1	0.9	;
	76	1	0.245	0.180	0.000	0.000	1	1	0	4.16	1	1.1	0.9	;
	77	1	0.040	0.020	0.000	0.000	1	1	0	4.16	1	1.1	0.9	;
	78	1	0.000	0.000	0.000	0.000	1	1	0	4.16	1	1.1	0.9	;
	79	1	0.040	0.020	0.000	0.000	1	1	0	4.16	1	1.1	0.9	;
	80	1	0.040	0.020	0.000	0.000	1	1	0	4.16	1	1.1	0.9	;
	81	1	0.060	0.030	0.000	0.000	1	1	0	4.16	1	1.1	0.9	;
	82	1	0.040	0.020	0.000	0.000	1	1	0	4.16	1	1.1	0.9	;
	83	1	0.020	0.010	0.000	0.000	1	1	0	4.16	1	1.1	0.9	;
	86	1	0.020	0.010	0.000	0.000	1	1	0	4.16	1	1.1	0.9	;
	87	1	0.080	0.040	0.000	0.000	1	1	0	4.16	1	1.1	0.9	;
	89	1	0.040	0.020	0.000	0.000	1	1	0	4.16	1	1.1	0.9	;
	91	1	0.040	0.020	0.000	0.000	1	1	0	4.16	1	1.1	0.9	;
	93	1	0.040	0.020	0.000	0.000	1	1	0	4.16	1	1.1	0.9	;
	95	1	0.040	0.020	0.000	0.000	1	1	0	4.16	1	1.1	0.9	;
	97	1	0.000	0.000	0.000	0.000	1	1	0	4.16	1	1.1	0.9	;
	98	1	0.040	0.020	0.000	0.000	1	1	0	4.16	1	1.1	0.9	;
	99	1	0.040	0.020	0.000	0.000	1	1	0	4.16	1	1.1	0.9	;
	100	1	0.040	0.020	0.000	0.000	1	1	0	4.16	1	1.1	0.9	;
	101	1	0.100	0.050	0.000	0.000	1	1	0	4.16	1	1.1	0.9	;
	105	1	0.080	0.040	0.000	0.000	1	1	0	4.16	1	1.1	0.9	;
	108	1	0.140	0.070	0.000	0.000	1	1	0	4.16	1	1.1	0.9	;
	18	1	0.080	0.040	0.000	0.000	1	1	0	4.16	1	1.1	0.9	;
	21	1	0.040	0.020	0.000	0.000	1	1	0	4.16	1	1.1	0.9	;
	23	1	0.040	0.020	0.000	0.000	1	1	0	4.16	1	1.1	0.9	;
	25	1	0.080	0.040	0.000	0.000	1	1	0	4.16	1	1.1	0.9	;
	28	1	0.040	0.020	0.000	0.000	1	1	0	4.16	1	1.1	0.9	;
	29	1	0.040	0.020	0.000	0.000	1	1	0	4.16	1	1.1	0.9	;
	30	1	0.040	0.020	0.000	0.000	1	1	0	4.16	1	1.1	0.9	;
	35	1	0.120	0.060	0.000	0.000	1	1	0	4.16	1	1.1	0.9	;
	40	1	0.020	0.010	0.000	0.000	1	1	0	4.16	1	1.1	0.9	;
	42	1	0.060	0.030	0.000	0.000	1	1	0	4.16	1	1.1	0.9	;
	44	1	0.040	0.020	0.000	0.000	1	1	0	4.16	1	1.1	0.9	;
	47	1	0.105	0.075	0.000	0.000	1	1	0	4.16	1	1.1	0.9	;
	48	1	0.210	0.150	0.000	0.000	1	1	0	4.16	1	1.1	0.9	;
	49	1	0.140	0.095	0.000	0.000	1	1	0	4.16	1	1.1	0.9	;
	50	1	0.040	0.020	0.000	0.000	1	1	0	4.16	1	1.1	0.9	;
	51	1	0.020	0.010	0.000	0.000	1	1	0	4.16	1	1.1	0.9	;
	150	3	0.000	0.000	0.000	0.000	1	1	0	4.16	1	1.1	0.9	;
	61	1	0.000	0.000	0.000	0.000	1	1	0	4.16	1	1.1	0.9	;
	94	1	0.000	0.000	0.000	0.000	1	1	0	4.16	1	1.1	0.9	;
	135	1	0.000	0.000	0.000	0.000	1	1	0	4.16	1	1.1	0.9	;
	149	1	0.000	0.000	0.000	0.000	1	1	0	4.16	1	1.1	0.9	;
	151	1	0.000	0.000	0.000	0.000	1	1	0	4.16	1	1.1	0.9	;
	152	1	0.000	0.000	0.000	0.000	1	1	0	4.16	1	1.1	0.9	;
	160	1	0.000	0.000	0.000	0.000	1	1	0	4.16	1	1.1	0.9	;
	197	1	0.000	0.000	0.000	0.000	1	1	0	4.16	1	1.1	0.9	;
	250	1	0.000	0.000	0.000	0.000	1	1	0	4.16	1	1.1	0.9	;
	300	1	0.000	0.000	0.000	0.000	1	1	0	4.16	1	1.1	0.9	;
	450	1	0.000	0.000	0.000	0.000	1	1	0	4.16	1	1.1	0.9	;
	611	1	0.160	0.080	0.000	0.000	1	1	0	4.16	1	1.1	0.9	;
	617	1	0.020	0.010	0.000	0.000	1	1	0	4.16	1	1.1	0.9	;
	618	1	0.120	0.060	0.000	0.000	1	1	0	4.16	1	1.1	0.9	;
	623	1	0.100	0.050	0.000	0.000	1	1	0	4.16	1	1.1	0.9	;
	662	1	0.040	0.020	0.000	0.000	1	1	0	4.16	1	1.1	0.9	;
	663	1	0.040	0.020	0.000	0.000	1	1	0	4.16	1	1.1	0.9	;
	664	1	0.000	0.000	0.000	0.000	1	1	0	4.16	1	1.1	0.9	;
	665	1	0.020	0.010	0.000	0.000	1	1	0	4.16	1	1.1	0.9	;
	666	1	0.020	0.010	0.000	0.000	1	1	0	4.16	1	1.1	0.9	;
	667	1	0.040	0.020	0.000	0.000	1	1	0	4.16	1	1.1	0.9	;
	670	1	0.020	0.010	0.000	0.000	1	1	0	4.16	1	1.1	0.9	;
	672	1	0.040	0.020	0.000	0.000	1	1	0	4.16	1	1.1	0.9	;
	673	1	0.040	0.020	0.000	0.000	1	1	0	4.16	1	1.1	0.9	;
	674	1	0.075	0.035	0.000	0.000	1	1	0	4.16	1	1.1	0.9	;
	675	1	0.140	0.100	0.000	0.000	1	1	0	4.16	1	1.1	0.9	;
	676	1	0.075	0.035	0.000	0.000	1	1	0	4.16	1	1.1	0.9	;
	677	1	0.120	0.060	0.000	0.000	1	1	0	4.16	1	1.1	0.9	;
	682	1	0.120	0.060	0.000	0.000	1	1	0	4.16	1	1.1	0.9	;
	686	1	0.245	0.180	0.000	0.000	1	1	0	4.16	1	1.1	0.9	;
	687	1	0.040	0.020	0.000	0.000	1	1	0	4.16	1	1.1	0.9	;
	688	1	0.000	0.000	0.000	0.000	1	1	0	4.16	1	1.1	0.9	;
	689	1	0.040	0.020	0.000	0.000	1	1	0	4.16	1	1.1	0.9	;
	690	1	0.040	0.020	0.000	0.000	1	1	0	4.16	1	1.1	0.9	;
	691	1	0.060	0.030	0.000	0.000	1	1	0	4.16	1	1.1	0.9	;
	692	1	0.040	0.020	0.000	0.000	1	1	0	4.16	1	1.1	0.9	;
	693	1	0.020	0.010	0.000	0.000	1	1	0	4.16	1	1.1	0.9	;
	696	1	0.020	0.010	0.000	0.000	1	1	0	4.16	1	1.1	0.9	;
	697	1	0.080	0.040	0.000	0.000	1	1	0	4.16	1	1.1	0.9	;
	699	1	0.040	0.020	0.000	0.000	1	1	0	4.16	1	1.1	0.9	;
	701	1	0.040	0.020	0.000	0.000	1	1	0	4.16	1	1.1	0.9	;
	703	1	0.040	0.020	0.000	0.000	1	1	0	4.16	1	1.1	0.9	;
	705	1	0.040	0.020	0.000	0.000	1	1	0	4.16	1	1.1	0.9	;
	707	1	0.000	0.000	0.000	0.000	1	1	0	4.16	1	1.1	0.9	;
	708	1	0.040	0.020	0.000	0.000	1	1	0	4.16	1	1.1	0.9	;
	709	1	0.040	0.020	0.000	0.000	1	1	0	4.16	1	1.1	0.9	;
	710	1	0.040	0.020	0.000	0.000	1	1	0	4.16	1	1.1	0.9	;
	711	1	0.100	0.050	0.000	0.000	1	1	0	4.16	1	1.1	0.9	;
	715	1	0.080	0.040	0.000	0.000	1	1	0	4.16	1	1.1	0.9	;
	718	1	0.140	0.070	0.000	0.000	1	1	0	4.16	1	1.1	0.9	;
	628	1	0.080	0.040	0.000	0.000	1	1	0	4.16	1	1.1	0.9	;
	631	1	0.040	0.020	0.000	0.000	1	1	0	4.16	1	1.1	0.9	;
	633	1	0.040	0.020	0.000	0.000	1	1	0	4.16	1	1.1	0.9	;
	635	1	0.080	0.040	0.000	0.000	1	1	0	4.16	1	1.1	0.9	;
	638	1	0.040	0.020	0.000	0.000	1	1	0	4.16	1	1.1	0.9	;
	639	1	0.040	0.020	0.000	0.000	1	1	0	4.16	1	1.1	0.9	;
	640	1	0.040	0.020	0.000	0.000	1	1	0	4.16	1	1.1	0.9	;
	645	1	0.120	0.060	0.000	0.000	1	1	0	4.16	1	1.1	0.9	;
	650	1	0.020	0.010	0.000	0.000	1	1	0	4.16	1	1.1	0.9	;
	652	1	0.060	0.030	0.000	0.000	1	1	0	4.16	1	1.1	0.9	;
	654	1	0.040	0.020	0.000	0.000	1	1	0	4.16	1	1.1	0.9	;
	657	1	0.105	0.075	0.000	0.000	1	1	0	4.16	1	1.1	0.9	;
	658	1	0.210	0.150	0.000	0.000	1	1	0	4.16	1	1.1	0.9	;
	659	1	0.140	0.095	0.000	0.000	1	1	0	4.16	1	1.1	0.9	;
	660	1	0.040	0.020	0.000	0.000	1	1	0	4.16	1	1.1	0.9	;
	661	1	0.020	0.010	0.000	0.000	1	1	0	4.16	1	1.1	0.9	;
	760	3	0.000	0.000	0.000	0.000	1	1	0	4.16	1	1.1	0.9	;
	671	1	0.000	0.000	0.000	0.000	1	1	0	4.16	1	1.1	0.9	;
	704	1	0.000	0.000	0.000	0.000	1	1	0	4.16	1	1.1	0.9	;
	745	1	0.000	0.000	0.000	0.000	1	1	0	4.16	1	1.1	0.9	;
	759	1	0.000	0.000	0.000	0.000	1	1	0	4.16	1	1.1	0.9	;
	761	1	0.000	0.000	0.000	0.000	1	1	0	4.16	1	1.1	0.9	;
	762	1	0.000	0.000	0.000	0.000	1	1	0	4.16	1	1.1	0.9	;
	770	1	0.000	0.000	0.000	0.000	1	1	0	4.16	1	1.1	0.9	;
	807	1	0.000	0.000	0.000	0.000	1	1	0	4.16	1	1.1	0.9	;
	860	1	0.000	0.000	0.000	0.000	1	1	0	4.16	1	1.1	0.9	;
	910	1	0.000	0.000	0.000	0.000	1	1	0	4.16	1	1.1	0.9	;
	1060	1	0.000	0.000	0.000	0.000	1	1	0	4.16	1	1.1	0.9	;
	1221	1	0.160	0.080	0.000	0.000	1	1	0	4.16	1	1.1	0.9	;
	1227	1	0.020	0.010	0.000	0.000	1	1	0	4.16	1	1.1	0.9	;
	1228	1	0.120	0.060	0.000	0.000	1	1	0	4.16	1	1.1	0.9	;
	1233	1	0.100	0.050	0.000	0.000	1	1	0	4.16	1	1.1	0.9	;
	1272	1	0.040	0.020	0.000	0.000	1	1	0	4.16	1	1.1	0.9	;
	1273	1	0.040	0.020	0.000	0.000	1	1	0	4.16	1	1.1	0.9	;
	1274	1	0.000	0.000	0.000	0.000	1	1	0	4.16	1	1.1	0.9	;
	1275	1	0.020	0.010	0.000	0.000	1	1	0	4.16	1	1.1	0.9	;
	1276	1	0.020	0.010	0.000	0.000	1	1	0	4.16	1	1.1	0.9	;
	1277	1	0.040	0.020	0.000	0.000	1	1	0	4.16	1	1.1	0.9	;
	1280	1	0.020	0.010	0.000	0.000	1	1	0	4.16	1	1.1	0.9	;
	1282	1	0.040	0.020	0.000	0.000	1	1	0	4.16	1	1.1	0.9	;
	1283	1	0.040	0.020	0.000	0.000	1	1	0	4.16	1	1.1	0.9	;
	1284	1	0.075	0.035	0.000	0.000	1	1	0	4.16	1	1.1	0.9	;
	1285	1	0.140	0.100	0.000	0.000	1	1	0	4.16	1	1.1	0.9	;
	1286	1	0.075	0.035	0.000	0.000	1	1	0	4.16	1	1.1	0.9	;
	1287	1	0.120	0.060	0.000	0.000	1	1	0	4.16	1	1.1	0.9	;
	1292	1	0.120	0.060	0.000	0.000	1	1	0	4.16	1	1.1	0.9	;
	1296	1	0.245	0.180	0.000	0.000	1	1	0	4.16	1	1.1	0.9	;
	1297	1	0.040	0.020	0.000	0.000	1	1	0	4.16	1	1.1	0.9	;
	1298	1	0.000	0.000	0.000	0.000	1	1	0	4.16	1	1.1	0.9	;
	1299	1	0.040	0.020	0.000	0.000	1	1	0	4.16	1	1.1	0.9	;
	1300	1	0.040	0.020	0.000	0.000	1	1	0	4.16	1	1.1	0.9	;
	1301	1	0.060	0.030	0.000	0.000	1	1	0	4.16	1	1.1	0.9	;
	1302	1	0.040	0.020	0.000	0.000	1	1	0	4.16	1	1.1	0.9	;
	1303	1	0.020	0.010	0.000	0.000	1	1	0	4.16	1	1.1	0.9	;
	1306	1	0.020	0.010	0.000	0.000	1	1	0	4.16	1	1.1	0.9	;
	1307	1	0.080	0.040	0.000	0.000	1	1	0	4.16	1	1.1	0.9	;
	1309	1	0.040	0.020	0.000	0.000	1	1	0	4.16	1	1.1	0.9	;
	1311	1	0.040	0.020	0.000	0.000	1	1	0	4.16	1	1.1	0.9	;
	1313	1	0.040	0.020	0.000	0.000	1	1	0	4.16	1	1.1	0.9	;
	1315	1	0.040	0.020	0.000	0.000	1	1	0	4.16	1	1.1	0.9	;
	1317	1	0.000	0.000	0.000	0.000	1	1	0	4.16	1	1.1	0.9	;
	1318	1	0.040	0.020	0.000	0.000	1	1	0	4.16	1	1.1	0.9	;
	1319	1	0.040	0.020	0.000	0.000	1	1	0	4.16	1	1.1	0.9	;
	1320	1	0.040	0.020	0.000	0.000	1	1	0	4.16	1	1.1	0.9	;
	1321	1	0.100	0.050	0.000	0.000	1	1	0	4.16	1	1.1	0.9	;
	1325	1	0.080	0.040	0.000	0.000	1	1	0	4.16	1	1.1	0.9	;
	1328	1	0.140	0.070	0.000	0.000	1	1	0	4.16	1	1.1	0.9	;
	1238	1	0.080	0.040	0.000	0.000	1	1	0	4.16	1	1.1	0.9	;
	1241	1	0.040	0.020	0.000	0.000	1	1	0	4.16	1	1.1	0.9	;
	1243	1	0.040	0.020	0.000	0.000	1	1	0	4.16	1	1.1	0.9	;
	1245	1	0.080	0.040	0.000	0.000	1	1	0	4.16	1	1.1	0.9	;
	1248	1	0.040	0.020	0.000	0.000	1	1	0	4.16	1	1.1	0.9	;
	1249	1	0.040	0.020	0.000	0.000	1	1	0	4.16	1	1.1	0.9	;
	1250	1	0.040	0.020	0.000	0.000	1	1	0	4.16	1	1.1	0.9	;
	1255	1	0.120	0.060	0.000	0.000	1	1	0	4.16	1	1.1	0.9	;
	1260	1	0.020	0.010	0.000	0.000	1	1	0	4.16	1	1.1	0.9	;
	1262	1	0.060	0.030	0.000	0.000	1	1	0	4.16	1	1.1	0.9	;
	1264	1	0.040	0.020	0.000	0.000	1	1	0	4.16	1	1.1	0.9	;
	1267	1	0.105	0.075	0.000	0.000	1	1	0	4.16	1	1.1	0.9	;
	1268	1	0.210	0.150	0.000	0.000	1	1	0	4.16	1	1.1	0.9	;
	1269	1	0.140	0.095	0.000	0.000	1	1	0	4.16	1	1.1	0.9	;
	1270	1	0.040	0.020	0.000	0.000	1	1	0	4.16	1	1.1	0.9	;
	1271	1	0.020	0.010	0.000	0.000	1	1	0	4.16	1	1.1	0.9	;
	1370	3	0.000	0.000	0.000	0.000	1	1	0	4.16	1	1.1	0.9	;
	1281	1	0.000	0.000	0.000	0.000	1	1	0	4.16	1	1.1	0.9	;
	1314	1	0.000	0.000	0.000	0.000	1	1	0	4.16	1	1.1	0.9	;
	1355	1	0.000	0.000	0.000	0.000	1	1	0	4.16	1	1.1	0.9	;
	1369	1	0.000	0.000	0.000	0.000	1	1	0	4.16	1	1.1	0.9	;
	1371	1	0.000	0.000	0.000	0.000	1	1	0	4.16	1	1.1	0.9	;
	1372	1	0.000	0.000	0.000	0.000	1	1	0	4.16	1	1.1	0.9	;
	1380	1	0.000	0.000	0.000	0.000	1	1	0	4.16	1	1.1	0.9	;
	1417	1	0.000	0.000	0.000	0.000	1	1	0	4.16	1	1.1	0.9	;
	1470	1	0.000	0.000	0.000	0.000	1	1	0	4.16	1	1.1	0.9	;
	1520	1	0.000	0.000	0.000	0.000	1	1	0	4.16	1	1.1	0.9	;
...


%copy 2

	2281	1	0.160	0.080	0.000	0.000	1	1	0	4.16	1	1.1	0.9	;
	2287	1	0.020	0.010	0.000	0.000	1	1	0	4.16	1	1.1	0.9	;
	2288	1	0.120	0.060	0.000	0.000	1	1	0	4.16	1	1.1	0.9	;
	2293	1	0.100	0.050	0.000	0.000	1	1	0	4.16	1	1.1	0.9	;
	2332	1	0.040	0.020	0.000	0.000	1	1	0	4.16	1	1.1	0.9	;
	2333	1	0.040	0.020	0.000	0.000	1	1	0	4.16	1	1.1	0.9	;
	2334	1	0.000	0.000	0.000	0.000	1	1	0	4.16	1	1.1	0.9	;
	2335	1	0.020	0.010	0.000	0.000	1	1	0	4.16	1	1.1	0.9	;
	2336	1	0.020	0.010	0.000	0.000	1	1	0	4.16	1	1.1	0.9	;
	2337	1	0.040	0.020	0.000	0.000	1	1	0	4.16	1	1.1	0.9	;
	2340	1	0.020	0.010	0.000	0.000	1	1	0	4.16	1	1.1	0.9	;
	2342	1	0.040	0.020	0.000	0.000	1	1	0	4.16	1	1.1	0.9	;
	2343	1	0.040	0.020	0.000	0.000	1	1	0	4.16	1	1.1	0.9	;
	2344	1	0.075	0.035	0.000	0.000	1	1	0	4.16	1	1.1	0.9	;
	2345	1	0.140	0.100	0.000	0.000	1	1	0	4.16	1	1.1	0.9	;
	2346	1	0.075	0.035	0.000	0.000	1	1	0	4.16	1	1.1	0.9	;
	2347	1	0.120	0.060	0.000	0.000	1	1	0	4.16	1	1.1	0.9	;
	2352	1	0.120	0.060	0.000	0.000	1	1	0	4.16	1	1.1	0.9	;
	2356	1	0.245	0.180	0.000	0.000	1	1	0	4.16	1	1.1	0.9	;
	2357	1	0.040	0.020	0.000	0.000	1	1	0	4.16	1	1.1	0.9	;
	2358	1	0.000	0.000	0.000	0.000	1	1	0	4.16	1	1.1	0.9	;
	2359	1	0.040	0.020	0.000	0.000	1	1	0	4.16	1	1.1	0.9	;
	2360	1	0.040	0.020	0.000	0.000	1	1	0	4.16	1	1.1	0.9	;
	2361	1	0.060	0.030	0.000	0.000	1	1	0	4.16	1	1.1	0.9	;
	2362	1	0.040	0.020	0.000	0.000	1	1	0	4.16	1	1.1	0.9	;
	2363	1	0.020	0.010	0.000	0.000	1	1	0	4.16	1	1.1	0.9	;
	2366	1	0.020	0.010	0.000	0.000	1	1	0	4.16	1	1.1	0.9	;
	2367	1	0.080	0.040	0.000	0.000	1	1	0	4.16	1	1.1	0.9	;
	2369	1	0.040	0.020	0.000	0.000	1	1	0	4.16	1	1.1	0.9	;
	2371	1	0.040	0.020	0.000	0.000	1	1	0	4.16	1	1.1	0.9	;
	2373	1	0.040	0.020	0.000	0.000	1	1	0	4.16	1	1.1	0.9	;
	2375	1	0.040	0.020	0.000	0.000	1	1	0	4.16	1	1.1	0.9	;
	2377	1	0.000	0.000	0.000	0.000	1	1	0	4.16	1	1.1	0.9	;
	2378	1	0.040	0.020	0.000	0.000	1	1	0	4.16	1	1.1	0.9	;
	2379	1	0.040	0.020	0.000	0.000	1	1	0	4.16	1	1.1	0.9	;
	2380	1	0.040	0.020	0.000	0.000	1	1	0	4.16	1	1.1	0.9	;
	2381	1	0.100	0.050	0.000	0.000	1	1	0	4.16	1	1.1	0.9	;
	2385	1	0.080	0.040	0.000	0.000	1	1	0	4.16	1	1.1	0.9	;
	2388	1	0.140	0.070	0.000	0.000	1	1	0	4.16	1	1.1	0.9	;
	2298	1	0.080	0.040	0.000	0.000	1	1	0	4.16	1	1.1	0.9	;
	2301	1	0.040	0.020	0.000	0.000	1	1	0	4.16	1	1.1	0.9	;
	2303	1	0.040	0.020	0.000	0.000	1	1	0	4.16	1	1.1	0.9	;
	2305	1	0.080	0.040	0.000	0.000	1	1	0	4.16	1	1.1	0.9	;
	2308	1	0.040	0.020	0.000	0.000	1	1	0	4.16	1	1.1	0.9	;
	2309	1	0.040	0.020	0.000	0.000	1	1	0	4.16	1	1.1	0.9	;
	2310	1	0.040	0.020	0.000	0.000	1	1	0	4.16	1	1.1	0.9	;
	2315	1	0.120	0.060	0.000	0.000	1	1	0	4.16	1	1.1	0.9	;
	2320	1	0.020	0.010	0.000	0.000	1	1	0	4.16	1	1.1	0.9	;
	2322	1	0.060	0.030	0.000	0.000	1	1	0	4.16	1	1.1	0.9	;
	2324	1	0.040	0.020	0.000	0.000	1	1	0	4.16	1	1.1	0.9	;
	2327	1	0.105	0.075	0.000	0.000	1	1	0	4.16	1	1.1	0.9	;
	2328	1	0.210	0.150	0.000	0.000	1	1	0	4.16	1	1.1	0.9	;
	2329	1	0.140	0.095	0.000	0.000	1	1	0	4.16	1	1.1	0.9	;
	2330	1	0.040	0.020	0.000	0.000	1	1	0	4.16	1	1.1	0.9	;
	2331	1	0.020	0.010	0.000	0.000	1	1	0	4.16	1	1.1	0.9	;
	2430	3	0.000	0.000	0.000	0.000	1	1	0	4.16	1	1.1	0.9	;
	2341	1	0.000	0.000	0.000	0.000	1	1	0	4.16	1	1.1	0.9	;
	2374	1	0.000	0.000	0.000	0.000	1	1	0	4.16	1	1.1	0.9	;
	2415	1	0.000	0.000	0.000	0.000	1	1	0	4.16	1	1.1	0.9	;
	2429	1	0.000	0.000	0.000	0.000	1	1	0	4.16	1	1.1	0.9	;
	2431	1	0.000	0.000	0.000	0.000	1	1	0	4.16	1	1.1	0.9	;
	2432	1	0.000	0.000	0.000	0.000	1	1	0	4.16	1	1.1	0.9	;
	2440	1	0.000	0.000	0.000	0.000	1	1	0	4.16	1	1.1	0.9	;
	2477	1	0.000	0.000	0.000	0.000	1	1	0	4.16	1	1.1	0.9	;
	2530	1	0.000	0.000	0.000	0.000	1	1	0	4.16	1	1.1	0.9	;
	2580	1	0.000	0.000	0.000	0.000	1	1	0	4.16	1	1.1	0.9	;
	2730	1	0.000	0.000	0.000	0.000	1	1	0	4.16	1	1.1	0.9	;
	2891	1	0.160	0.080	0.000	0.000	1	1	0	4.16	1	1.1	0.9	;
	2897	1	0.020	0.010	0.000	0.000	1	1	0	4.16	1	1.1	0.9	;
	2898	1	0.120	0.060	0.000	0.000	1	1	0	4.16	1	1.1	0.9	;
	2903	1	0.100	0.050	0.000	0.000	1	1	0	4.16	1	1.1	0.9	;
	2942	1	0.040	0.020	0.000	0.000	1	1	0	4.16	1	1.1	0.9	;
	2943	1	0.040	0.020	0.000	0.000	1	1	0	4.16	1	1.1	0.9	;
	2944	1	0.000	0.000	0.000	0.000	1	1	0	4.16	1	1.1	0.9	;
	2945	1	0.020	0.010	0.000	0.000	1	1	0	4.16	1	1.1	0.9	;
	2946	1	0.020	0.010	0.000	0.000	1	1	0	4.16	1	1.1	0.9	;
	2947	1	0.040	0.020	0.000	0.000	1	1	0	4.16	1	1.1	0.9	;
	2950	1	0.020	0.010	0.000	0.000	1	1	0	4.16	1	1.1	0.9	;
	2952	1	0.040	0.020	0.000	0.000	1	1	0	4.16	1	1.1	0.9	;
	2953	1	0.040	0.020	0.000	0.000	1	1	0	4.16	1	1.1	0.9	;
	2954	1	0.075	0.035	0.000	0.000	1	1	0	4.16	1	1.1	0.9	;
	2955	1	0.140	0.100	0.000	0.000	1	1	0	4.16	1	1.1	0.9	;
	2956	1	0.075	0.035	0.000	0.000	1	1	0	4.16	1	1.1	0.9	;
	2957	1	0.120	0.060	0.000	0.000	1	1	0	4.16	1	1.1	0.9	;
	2962	1	0.120	0.060	0.000	0.000	1	1	0	4.16	1	1.1	0.9	;
	2966	1	0.245	0.180	0.000	0.000	1	1	0	4.16	1	1.1	0.9	;
	2967	1	0.040	0.020	0.000	0.000	1	1	0	4.16	1	1.1	0.9	;
	2968	1	0.000	0.000	0.000	0.000	1	1	0	4.16	1	1.1	0.9	;
	2969	1	0.040	0.020	0.000	0.000	1	1	0	4.16	1	1.1	0.9	;
	2970	1	0.040	0.020	0.000	0.000	1	1	0	4.16	1	1.1	0.9	;
	2971	1	0.060	0.030	0.000	0.000	1	1	0	4.16	1	1.1	0.9	;
	2972	1	0.040	0.020	0.000	0.000	1	1	0	4.16	1	1.1	0.9	;
	2973	1	0.020	0.010	0.000	0.000	1	1	0	4.16	1	1.1	0.9	;
	2976	1	0.020	0.010	0.000	0.000	1	1	0	4.16	1	1.1	0.9	;
	2977	1	0.080	0.040	0.000	0.000	1	1	0	4.16	1	1.1	0.9	;
	2979	1	0.040	0.020	0.000	0.000	1	1	0	4.16	1	1.1	0.9	;
	2981	1	0.040	0.020	0.000	0.000	1	1	0	4.16	1	1.1	0.9	;
	2983	1	0.040	0.020	0.000	0.000	1	1	0	4.16	1	1.1	0.9	;
	2985	1	0.040	0.020	0.000	0.000	1	1	0	4.16	1	1.1	0.9	;
	2987	1	0.000	0.000	0.000	0.000	1	1	0	4.16	1	1.1	0.9	;
	2988	1	0.040	0.020	0.000	0.000	1	1	0	4.16	1	1.1	0.9	;
	2989	1	0.040	0.020	0.000	0.000	1	1	0	4.16	1	1.1	0.9	;
	2990	1	0.040	0.020	0.000	0.000	1	1	0	4.16	1	1.1	0.9	;
	2991	1	0.100	0.050	0.000	0.000	1	1	0	4.16	1	1.1	0.9	;
	2995	1	0.080	0.040	0.000	0.000	1	1	0	4.16	1	1.1	0.9	;
	2998	1	0.140	0.070	0.000	0.000	1	1	0	4.16	1	1.1	0.9	;
	2908	1	0.080	0.040	0.000	0.000	1	1	0	4.16	1	1.1	0.9	;
	2911	1	0.040	0.020	0.000	0.000	1	1	0	4.16	1	1.1	0.9	;
	2913	1	0.040	0.020	0.000	0.000	1	1	0	4.16	1	1.1	0.9	;
	2915	1	0.080	0.040	0.000	0.000	1	1	0	4.16	1	1.1	0.9	;
	2918	1	0.040	0.020	0.000	0.000	1	1	0	4.16	1	1.1	0.9	;
	2919	1	0.040	0.020	0.000	0.000	1	1	0	4.16	1	1.1	0.9	;
	2920	1	0.040	0.020	0.000	0.000	1	1	0	4.16	1	1.1	0.9	;
	2925	1	0.120	0.060	0.000	0.000	1	1	0	4.16	1	1.1	0.9	;
	2930	1	0.020	0.010	0.000	0.000	1	1	0	4.16	1	1.1	0.9	;
	2932	1	0.060	0.030	0.000	0.000	1	1	0	4.16	1	1.1	0.9	;
	2934	1	0.040	0.020	0.000	0.000	1	1	0	4.16	1	1.1	0.9	;
	2937	1	0.105	0.075	0.000	0.000	1	1	0	4.16	1	1.1	0.9	;
	2938	1	0.210	0.150	0.000	0.000	1	1	0	4.16	1	1.1	0.9	;
	2939	1	0.140	0.095	0.000	0.000	1	1	0	4.16	1	1.1	0.9	;
	2940	1	0.040	0.020	0.000	0.000	1	1	0	4.16	1	1.1	0.9	;
	2941	1	0.020	0.010	0.000	0.000	1	1	0	4.16	1	1.1	0.9	;
	3040	3	0.000	0.000	0.000	0.000	1	1	0	4.16	1	1.1	0.9	;
	2951	1	0.000	0.000	0.000	0.000	1	1	0	4.16	1	1.1	0.9	;
	2984	1	0.000	0.000	0.000	0.000	1	1	0	4.16	1	1.1	0.9	;
	3025	1	0.000	0.000	0.000	0.000	1	1	0	4.16	1	1.1	0.9	;
	3039	1	0.000	0.000	0.000	0.000	1	1	0	4.16	1	1.1	0.9	;
	3041	1	0.000	0.000	0.000	0.000	1	1	0	4.16	1	1.1	0.9	;
	3042	1	0.000	0.000	0.000	0.000	1	1	0	4.16	1	1.1	0.9	;
	3050	1	0.000	0.000	0.000	0.000	1	1	0	4.16	1	1.1	0.9	;
	3087	1	0.000	0.000	0.000	0.000	1	1	0	4.16	1	1.1	0.9	;
	3140	1	0.000	0.000	0.000	0.000	1	1	0	4.16	1	1.1	0.9	;
	3190	1	0.000	0.000	0.000	0.000	1	1	0	4.16	1	1.1	0.9	;
	3340	1	0.000	0.000	0.000	0.000	1	1	0	4.16	1	1.1	0.9	;
	3501	1	0.160	0.080	0.000	0.000	1	1	0	4.16	1	1.1	0.9	;
	3507	1	0.020	0.010	0.000	0.000	1	1	0	4.16	1	1.1	0.9	;
	3508	1	0.120	0.060	0.000	0.000	1	1	0	4.16	1	1.1	0.9	;
	3513	1	0.100	0.050	0.000	0.000	1	1	0	4.16	1	1.1	0.9	;
	3552	1	0.040	0.020	0.000	0.000	1	1	0	4.16	1	1.1	0.9	;
	3553	1	0.040	0.020	0.000	0.000	1	1	0	4.16	1	1.1	0.9	;
	3554	1	0.000	0.000	0.000	0.000	1	1	0	4.16	1	1.1	0.9	;
	3555	1	0.020	0.010	0.000	0.000	1	1	0	4.16	1	1.1	0.9	;
	3556	1	0.020	0.010	0.000	0.000	1	1	0	4.16	1	1.1	0.9	;
	3557	1	0.040	0.020	0.000	0.000	1	1	0	4.16	1	1.1	0.9	;
	3560	1	0.020	0.010	0.000	0.000	1	1	0	4.16	1	1.1	0.9	;
	3562	1	0.040	0.020	0.000	0.000	1	1	0	4.16	1	1.1	0.9	;
	3563	1	0.040	0.020	0.000	0.000	1	1	0	4.16	1	1.1	0.9	;
	3564	1	0.075	0.035	0.000	0.000	1	1	0	4.16	1	1.1	0.9	;
	3565	1	0.140	0.100	0.000	0.000	1	1	0	4.16	1	1.1	0.9	;
	3566	1	0.075	0.035	0.000	0.000	1	1	0	4.16	1	1.1	0.9	;
	3567	1	0.120	0.060	0.000	0.000	1	1	0	4.16	1	1.1	0.9	;
	3572	1	0.120	0.060	0.000	0.000	1	1	0	4.16	1	1.1	0.9	;
	3576	1	0.245	0.180	0.000	0.000	1	1	0	4.16	1	1.1	0.9	;
	3577	1	0.040	0.020	0.000	0.000	1	1	0	4.16	1	1.1	0.9	;
	3578	1	0.000	0.000	0.000	0.000	1	1	0	4.16	1	1.1	0.9	;
	3579	1	0.040	0.020	0.000	0.000	1	1	0	4.16	1	1.1	0.9	;
	3580	1	0.040	0.020	0.000	0.000	1	1	0	4.16	1	1.1	0.9	;
	3581	1	0.060	0.030	0.000	0.000	1	1	0	4.16	1	1.1	0.9	;
	3582	1	0.040	0.020	0.000	0.000	1	1	0	4.16	1	1.1	0.9	;
	3583	1	0.020	0.010	0.000	0.000	1	1	0	4.16	1	1.1	0.9	;
	3586	1	0.020	0.010	0.000	0.000	1	1	0	4.16	1	1.1	0.9	;
	3587	1	0.080	0.040	0.000	0.000	1	1	0	4.16	1	1.1	0.9	;
	3589	1	0.040	0.020	0.000	0.000	1	1	0	4.16	1	1.1	0.9	;
	3591	1	0.040	0.020	0.000	0.000	1	1	0	4.16	1	1.1	0.9	;
	3593	1	0.040	0.020	0.000	0.000	1	1	0	4.16	1	1.1	0.9	;
	3595	1	0.040	0.020	0.000	0.000	1	1	0	4.16	1	1.1	0.9	;
	3597	1	0.000	0.000	0.000	0.000	1	1	0	4.16	1	1.1	0.9	;
	3598	1	0.040	0.020	0.000	0.000	1	1	0	4.16	1	1.1	0.9	;
	3599	1	0.040	0.020	0.000	0.000	1	1	0	4.16	1	1.1	0.9	;
	3600	1	0.040	0.020	0.000	0.000	1	1	0	4.16	1	1.1	0.9	;
	3601	1	0.100	0.050	0.000	0.000	1	1	0	4.16	1	1.1	0.9	;
	3605	1	0.080	0.040	0.000	0.000	1	1	0	4.16	1	1.1	0.9	;
	3608	1	0.140	0.070	0.000	0.000	1	1	0	4.16	1	1.1	0.9	;
	3518	1	0.080	0.040	0.000	0.000	1	1	0	4.16	1	1.1	0.9	;
	3521	1	0.040	0.020	0.000	0.000	1	1	0	4.16	1	1.1	0.9	;
	3523	1	0.040	0.020	0.000	0.000	1	1	0	4.16	1	1.1	0.9	;
	3525	1	0.080	0.040	0.000	0.000	1	1	0	4.16	1	1.1	0.9	;
	3528	1	0.040	0.020	0.000	0.000	1	1	0	4.16	1	1.1	0.9	;
	3529	1	0.040	0.020	0.000	0.000	1	1	0	4.16	1	1.1	0.9	;
	3530	1	0.040	0.020	0.000	0.000	1	1	0	4.16	1	1.1	0.9	;
	3535	1	0.120	0.060	0.000	0.000	1	1	0	4.16	1	1.1	0.9	;
	3540	1	0.020	0.010	0.000	0.000	1	1	0	4.16	1	1.1	0.9	;
	3542	1	0.060	0.030	0.000	0.000	1	1	0	4.16	1	1.1	0.9	;
	3544	1	0.040	0.020	0.000	0.000	1	1	0	4.16	1	1.1	0.9	;
	3547	1	0.105	0.075	0.000	0.000	1	1	0	4.16	1	1.1	0.9	;
	3548	1	0.210	0.150	0.000	0.000	1	1	0	4.16	1	1.1	0.9	;
	3549	1	0.140	0.095	0.000	0.000	1	1	0	4.16	1	1.1	0.9	;
	3550	1	0.040	0.020	0.000	0.000	1	1	0	4.16	1	1.1	0.9	;
	3551	1	0.020	0.010	0.000	0.000	1	1	0	4.16	1	1.1	0.9	;
	3650	3	0.000	0.000	0.000	0.000	1	1	0	4.16	1	1.1	0.9	;
	3561	1	0.000	0.000	0.000	0.000	1	1	0	4.16	1	1.1	0.9	;
	3594	1	0.000	0.000	0.000	0.000	1	1	0	4.16	1	1.1	0.9	;
	3635	1	0.000	0.000	0.000	0.000	1	1	0	4.16	1	1.1	0.9	;
	3649	1	0.000	0.000	0.000	0.000	1	1	0	4.16	1	1.1	0.9	;
	3651	1	0.000	0.000	0.000	0.000	1	1	0	4.16	1	1.1	0.9	;
	3652	1	0.000	0.000	0.000	0.000	1	1	0	4.16	1	1.1	0.9	;
	3660	1	0.000	0.000	0.000	0.000	1	1	0	4.16	1	1.1	0.9	;
	3697	1	0.000	0.000	0.000	0.000	1	1	0	4.16	1	1.1	0.9	;
	3750	1	0.000	0.000	0.000	0.000	1	1	0	4.16	1	1.1	0.9	;
	3800	1	0.000	0.000	0.000	0.000	1	1	0	4.16	1	1.1	0.9	;
...
];

%% generator data
%	bus	Pg	Qg	Qmax	Qmin	Vg	mBase	status	Pmax	Pmin	Pc1	Pc2	Qc1min	Qc1max	Qc2min	Qc2max	ramp_agc	ramp_10	ramp_30	ramp_q	apf
mpc.gen = [
	150	0	0	200	-200	1	1	1	200	-200	0	0	0	0	0	0	0	0	0	0	0;
	760	0	0	200	-200	1	1	1	200	-200	0	0	0	0	0	0	0	0	0	0	0;
	1370	0	0	200	-200	1	1	1	200	-200	0	0	0	0	0	0	0	0	0	0	0;
	1980	0	0	200	-200	1	1	1	200	-200	0	0	0	0	0	0	0	0	0	0	0;

%copy 2
	2430	0	0	200	-200	1	1	1	200	-200	0	0	0	0	0	0	0	0	0	0	0;
	3040	0	0	200	-200	1	1	1	200	-200	0	0	0	0	0	0	0	0	0	0	0;
	3650	0	0	200	-200	1	1	1	200	-200	0	0	0	0	0	0	0	0	0	0	0;
	4260	0	0	200	-200	1	1	1	200	-200	0	0	0	0	0	0	0	0	0	0	0;
];

%% branch data
%	fbus	tbus	r	x	b	rateA	rateB	rateC	ratio	angle	status	angmin	angmax
mpc.branch = [
	1	7	0.0010048967	0.0020588120	2.27077703696544E-008	100	100	100	0	0	1	-360	360	;
	7	8	0.0006699312	0.0013725413	1.51385135797696E-008	100	100	100	0	0	1	-360	360	;
	8	13	0.0010048967	0.0020588120	2.27077703696544E-008	100	100	100	0	0	1	-360	360	;
	52	53	0.0006699312	0.0013725413	1.51385135797696E-008	100	100	100	0	0	1	-360	360	;
	53	54	0.0004187070	0.0008578383	9.46157098735599E-009	100	100	100	0	0	1	-360	360	;
	54	55	0.0009211553	0.0018872444	2.08154561721832E-008	100	100	100	0	0	1	-360	360	;
	55	56	0.0009211553	0.0018872444	2.08154561721832E-008	100	100	100	0	0	1	-360	360	;
	54	57	0.0011723795	0.0024019474	2.64923987645968E-008	100	100	100	0	0	1	-360	360	;
	57	60	0.0025122418	0.0051470300	5.67694259241360E-008	100	100	100	0	0	1	-360	360	;
	60	62	0.0027749546	0.0013221274	1.83926822251266E-007	100	100	100	0	0	1	-360	360	;
	62	63	0.0019424682	0.0009254892	1.28748775575886E-007	100	100	100	0	0	1	-360	360	;
	63	64	0.0038849364	0.0018509784	2.57497551151773E-007	100	100	100	0	0	1	-360	360	;
	64	65	0.0047174228	0.0022476166	3.12675597827153E-007	100	100	100	0	0	1	-360	360	;
	65	66	0.0036074409	0.0017187657	2.39104868926646E-007	100	100	100	0	0	1	-360	360	;
	67	72	0.0009211553	0.0018872444	2.08154561721832E-008	100	100	100	0	0	1	-360	360	;
	72	76	0.0006699312	0.0013725413	1.51385135797696E-008	100	100	100	0	0	1	-360	360	;
	76	77	0.0013398623	0.0027450827	3.02770271595392E-008	100	100	100	0	0	1	-360	360	;
	77	78	0.0003349656	0.0006862707	7.56925678988480E-009	100	100	100	0	0	1	-360	360	;
	78	79	0.0007536726	0.0015441090	1.70000000000000E-008	100	100	100	0	0	1	-360	360	;
	78	80	0.0015910865	0.0032597857	3.60000000000000E-008	100	100	100	0	0	1	-360	360	;
	80	81	0.0015910865	0.0032597857	3.60000000000000E-008	100	100	100	0	0	1	-360	360	;
	81	82	0.0008374139	0.0017156767	1.89231419747120E-008	100	100	100	0	0	1	-360	360	;
	82	83	0.0008374139	0.0017156767	1.89231419747120E-008	100	100	100	0	0	1	-360	360	;
	76	86	0.0023447590	0.0048038947	5.30000000000000E-008	100	100	100	0	0	1	-360	360	;
	86	87	0.0015073451	0.0030882180	3.40616555544816E-008	100	100	100	0	0	1	-360	360	;
	87	89	0.0009211553	0.0018872444	2.08154561721832E-008	100	100	100	0	0	1	-360	360	;
	89	91	0.0007536726	0.0015441090	1.70000000000000E-008	100	100	100	0	0	1	-360	360	;
	91	93	0.0007536726	0.0015441090	1.70000000000000E-008	100	100	100	0	0	1	-360	360	;
	93	95	0.0010048967	0.0020588120	2.27077703696544E-008	100	100	100	0	0	1	-360	360	;
	67	97	0.0008374139	0.0017156767	1.89231419747120E-008	100	100	100	0	0	1	-360	360	;
	97	98	0.0009211553	0.0018872444	2.08154561721832E-008	100	100	100	0	0	1	-360	360	;
	98	99	0.0018423107	0.0037744887	4.16309123443664E-008	100	100	100	0	0	1	-360	360	;
	99	100	0.0010048967	0.0020588120	2.27077703696544E-008	100	100	100	0	0	1	-360	360	;
	101	105	0.0009211553	0.0018872444	2.08154561721832E-008	100	100	100	0	0	1	-360	360	;
	105	108	0.0010886381	0.0022303797	2.46000845671256E-008	100	100	100	0	0	1	-360	360	;
	13	18	0.0027634660	0.0056617331	6.24463685165496E-008	100	100	100	0	0	1	-360	360	;
	18	21	0.0010048967	0.0020588120	2.27077703696544E-008	100	100	100	0	0	1	-360	360	;
	21	23	0.0008374139	0.0017156767	1.89231419747120E-008	100	100	100	0	0	1	-360	360	;
	23	25	0.0009211553	0.0018872444	2.08154561721832E-008	100	100	100	0	0	1	-360	360	;
	25	28	0.0006699312	0.0013725413	1.51385135797696E-008	100	100	100	0	0	1	-360	360	;
	28	29	0.0010048967	0.0020588120	2.27077703696544E-008	100	100	100	0	0	1	-360	360	;
	29	30	0.0011723795	0.0024019474	2.64923987645968E-008	100	100	100	0	0	1	-360	360	;
	35	40	0.0008374139	0.0017156767	1.89231419747120E-008	100	100	100	0	0	1	-360	360	;
	40	42	0.0008374139	0.0017156767	1.89231419747120E-008	100	100	100	0	0	1	-360	360	;
	42	44	0.0006699312	0.0013725413	1.51385135797696E-008	100	100	100	0	0	1	-360	360	;
	44	47	0.0008374139	0.0017156767	1.89231419747120E-008	100	100	100	0	0	1	-360	360	;
	47	48	0.0005024484	0.0010294060	1.13538851848272E-008	100	100	100	0	0	1	-360	360	;
	47	49	0.0008374139	0.0017156767	1.89231419747120E-008	100	100	100	0	0	1	-360	360	;
	49	50	0.0008374139	0.0017156767	1.89231419747120E-008	100	100	100	0	0	1	-360	360	;
	50	51	0.0008374139	0.0017156767	1.89231419747120E-008	100	100	100	0	0	1	-360	360	;
	1	149	0.0013398623	0.0027450827	3.02770271595392E-008	100	100	100	0	0	1	-360	360	;
	30	250	0.0013398623	0.0027450827	3.02770271595392E-008	100	100	100	0	0	1	-360	360	;
	35	135	0.0013398623	0.0027450827	3.02770271595392E-008	100	100	100	0	0	1	-360	360	;
	52	152	0.0013398623	0.0027450827	3.02770271595392E-008	100	100	100	0	0	1	-360	360	;
	93	94	0.0013398623	0.0027450827	3.02770271595392E-008	100	100	100	0	0	1	-360	360	;
	51	151	0.0013398623	0.0027450827	3.02770271595392E-008	100	100	100	0	0	1	-360	360	;
	108	300	0.0013398623	0.0027450827	3.02770271595392E-008	100	100	100	0	0	1	-360	360	;
	101	197	0.0013398623	0.0027450827	3.02770271595392E-008	100	100	100	0	0	1	-360	360	;
	100	450	0.0013398623	0.0027450827	3.02770271595392E-008	100	100	100	0	0	1	-360	360	;
	67	160	0.0013398623	0.0027450827	3.02770271595392E-008	100	100	100	0	0	1	-360	360	;
	60	61	0.0013398623	0.0027450827	3.02770271595392E-008	100	100	100	0	0	1	-360	360	;
	149	150	0.0013398623	0.0027450827	3.02770271595392E-008	100	100	100	0	0	1	-360	360	;
	18	135	0.0013398623	0.0027450827	3.02770271595392E-008	100	100	100	0	0	1	-360	360	;
	13	152	0.0013398623	0.0027450827	3.02770271595392E-008	100	100	100	0	0	1	-360	360	;
	54	94	0.0013398623	0.0027450827	3.02770271595392E-008	100	100	100	0	0	1	-360	360	;
	151	300	0.0013398623	0.0027450827	3.02770271595392E-008	100	100	100	0	0	1	-360	360	;
	97	197	0.0013398623	0.0027450827	3.02770271595392E-008	100	100	100	0	0	1	-360	360	;
	60	160	0.0013398623	0.0027450827	3.02770271595392E-008	100	100	100	0	0	1	-360	360	;
	150	860	0.0010048967	0.0020588120	2.27077703696544E-008	100	100	100	0	0	1	-360	360	;
	95	910	0.0010048967	0.0020588120	2.27077703696544E-008	100	100	100	0	0	1	-360	360	;
	611	617	0.0010048967	0.0020588120	2.27077703696544E-008	100	100	100	0	0	1	-360	360	;
	617	618	0.0006699312	0.0013725413	1.51385135797696E-008	100	100	100	0	0	1	-360	360	;
	618	623	0.0010048967	0.0020588120	2.27077703696544E-008	100	100	100	0	0	1	-360	360	;
	662	663	0.0006699312	0.0013725413	1.51385135797696E-008	100	100	100	0	0	1	-360	360	;
	663	664	0.0004187070	0.0008578383	9.46157098735599E-009	100	100	100	0	0	1	-360	360	;
	664	665	0.0009211553	0.0018872444	2.08154561721832E-008	100	100	100	0	0	1	-360	360	;
	665	666	0.0009211553	0.0018872444	2.08154561721832E-008	100	100	100	0	0	1	-360	360	;
	664	667	0.0011723795	0.0024019474	2.64923987645968E-008	100	100	100	0	0	1	-360	360	;
	667	670	0.0025122418	0.0051470300	5.67694259241360E-008	100	100	100	0	0	1	-360	360	;
	670	672	0.0027749546	0.0013221274	1.83926822251266E-007	100	100	100	0	0	1	-360	360	;
	672	673	0.0019424682	0.0009254892	1.28748775575886E-007	100	100	100	0	0	1	-360	360	;
	673	674	0.0038849364	0.0018509784	2.57497551151773E-007	100	100	100	0	0	1	-360	360	;
	674	675	0.0047174228	0.0022476166	3.12675597827153E-007	100	100	100	0	0	1	-360	360	;
	675	676	0.0036074409	0.0017187657	2.39104868926646E-007	100	100	100	0	0	1	-360	360	;
	677	682	0.0009211553	0.0018872444	2.08154561721832E-008	100	100	100	0	0	1	-360	360	;
	682	686	0.0006699312	0.0013725413	1.51385135797696E-008	100	100	100	0	0	1	-360	360	;
	686	687	0.0013398623	0.0027450827	3.02770271595392E-008	100	100	100	0	0	1	-360	360	;
	687	688	0.0003349656	0.0006862707	7.56925678988480E-009	100	100	100	0	0	1	-360	360	;
	688	689	0.0007536726	0.0015441090	1.70000000000000E-008	100	100	100	0	0	1	-360	360	;
	688	690	0.0015910865	0.0032597857	3.60000000000000E-008	100	100	100	0	0	1	-360	360	;
	690	691	0.0015910865	0.0032597857	3.60000000000000E-008	100	100	100	0	0	1	-360	360	;
	691	692	0.0008374139	0.0017156767	1.89231419747120E-008	100	100	100	0	0	1	-360	360	;
	692	693	0.0008374139	0.0017156767	1.89231419747120E-008	100	100	100	0	0	1	-360	360	;
	686	696	0.0023447590	0.0048038947	5.30000000000000E-008	100	100	100	0	0	1	-360	360	;
	696	697	0.0015073451	0.0030882180	3.40616555544816E-008	100	100	100	0	0	1	-360	360	;
	697	699	0.0009211553	0.0018872444	2.08154561721832E-008	100	100	100	0	0	1	-360	360	;
	699	701	0.0007536726	0.0015441090	1.70000000000000E-008	100	100	100	0	0	1	-360	360	;
	701	703	0.0007536726	0.0015441090	1.70000000000000E-008	100	100	100	0	0	1	-360	360	;
	703	705	0.0010048967	0.0020588120	2.27077703696544E-008	100	100	100	0	0	1	-360	360	;
	677	707	0.0008374139	0.0017156767	1.89231419747120E-008	100	100	100	0	0	1	-360	360	;
	707	708	0.0009211553	0.0018872444	2.08154561721832E-008	100	100	100	0	0	1	-360	360	;
	708	709	0.0018423107	0.0037744887	4.16309123443664E-008	100	100	100	0	0	1	-360	360	;
	709	710	0.0010048967	0.0020588120	2.27077703696544E-008	100	100	100	0	0	1	-360	360	;
	711	715	0.0009211553	0.0018872444	2.08154561721832E-008	100	100	100	0	0	1	-360	360	;
	715	718	0.0010886381	0.0022303797	2.46000845671256E-008	100	100	100	0	0	1	-360	360	;
	623	628	0.0027634660	0.0056617331	6.24463685165496E-008	100	100	100	0	0	1	-360	360	;
	628	631	0.0010048967	0.0020588120	2.27077703696544E-008	100	100	100	0	0	1	-360	360	;
	631	633	0.0008374139	0.0017156767	1.89231419747120E-008	100	100	100	0	0	1	-360	360	;
	633	635	0.0009211553	0.0018872444	2.08154561721832E-008	100	100	100	0	0	1	-360	360	;
	635	638	0.0006699312	0.0013725413	1.51385135797696E-008	100	100	100	0	0	1	-360	360	;
	638	639	0.0010048967	0.0020588120	2.27077703696544E-008	100	100	100	0	0	1	-360	360	;
	639	640	0.0011723795	0.0024019474	2.64923987645968E-008	100	100	100	0	0	1	-360	360	;
	645	650	0.0008374139	0.0017156767	1.89231419747120E-008	100	100	100	0	0	1	-360	360	;
	650	652	0.0008374139	0.0017156767	1.89231419747120E-008	100	100	100	0	0	1	-360	360	;
	652	654	0.0006699312	0.0013725413	1.51385135797696E-008	100	100	100	0	0	1	-360	360	;
	654	657	0.0008374139	0.0017156767	1.89231419747120E-008	100	100	100	0	0	1	-360	360	;
	657	658	0.0005024484	0.0010294060	1.13538851848272E-008	100	100	100	0	0	1	-360	360	;
	657	659	0.0008374139	0.0017156767	1.89231419747120E-008	100	100	100	0	0	1	-360	360	;
	659	660	0.0008374139	0.0017156767	1.89231419747120E-008	100	100	100	0	0	1	-360	360	;
	660	661	0.0008374139	0.0017156767	1.89231419747120E-008	100	100	100	0	0	1	-360	360	;
	611	759	0.0013398623	0.0027450827	3.02770271595392E-008	100	100	100	0	0	1	-360	360	;
	640	860	0.0013398623	0.0027450827	3.02770271595392E-008	100	100	100	0	0	1	-360	360	;
	645	745	0.0013398623	0.0027450827	3.02770271595392E-008	100	100	100	0	0	1	-360	360	;
	662	762	0.0013398623	0.0027450827	3.02770271595392E-008	100	100	100	0	0	1	-360	360	;
	703	704	0.0013398623	0.0027450827	3.02770271595392E-008	100	100	100	0	0	1	-360	360	;
	661	761	0.0013398623	0.0027450827	3.02770271595392E-008	100	100	100	0	0	1	-360	360	;
	718	910	0.0013398623	0.0027450827	3.02770271595392E-008	100	100	100	0	0	1	-360	360	;
	711	807	0.0013398623	0.0027450827	3.02770271595392E-008	100	100	100	0	0	1	-360	360	;
	710	1060	0.0013398623	0.0027450827	3.02770271595392E-008	100	100	100	0	0	1	-360	360	;
	677	770	0.0013398623	0.0027450827	3.02770271595392E-008	100	100	100	0	0	1	-360	360	;
	670	671	0.0013398623	0.0027450827	3.02770271595392E-008	100	100	100	0	0	1	-360	360	;
	759	760	0.0013398623	0.0027450827	3.02770271595392E-008	100	100	100	0	0	1	-360	360	;
	628	745	0.0013398623	0.0027450827	3.02770271595392E-008	100	100	100	0	0	1	-360	360	;
	623	762	0.0013398623	0.0027450827	3.02770271595392E-008	100	100	100	0	0	1	-360	360	;
	664	704	0.0013398623	0.0027450827	3.02770271595392E-008	100	100	100	0	0	1	-360	360	;
	761	910	0.0013398623	0.0027450827	3.02770271595392E-008	100	100	100	0	0	1	-360	360	;
	707	807	0.0013398623	0.0027450827	3.02770271595392E-008	100	100	100	0	0	1	-360	360	;
	670	770	0.0013398623	0.0027450827	3.02770271595392E-008	100	100	100	0	0	1	-360	360	;
	300	1470	0.0010048967	0.0020588120	2.27077703696544E-008	100	100	100	0	0	1	-360	360	;
	1315	2130	0.0010048967	0.0020588120	2.27077703696544E-008	100	100	100	0	0	1	-360	360	;
	1221	1227	0.0010048967	0.0020588120	2.27077703696544E-008	100	100	100	0	0	1	-360	360	;
	1227	1228	0.0006699312	0.0013725413	1.51385135797696E-008	100	100	100	0	0	1	-360	360	;
	1228	1233	0.0010048967	0.0020588120	2.27077703696544E-008	100	100	100	0	0	1	-360	360	;
	1272	1273	0.0006699312	0.0013725413	1.51385135797696E-008	100	100	100	0	0	1	-360	360	;
	1273	1274	0.0004187070	0.0008578383	9.46157098735599E-009	100	100	100	0	0	1	-360	360	;
	1274	1275	0.0009211553	0.0018872444	2.08154561721832E-008	100	100	100	0	0	1	-360	360	;
	1275	1276	0.0009211553	0.0018872444	2.08154561721832E-008	100	100	100	0	0	1	-360	360	;
	1274	1277	0.0011723795	0.0024019474	2.64923987645968E-008	100	100	100	0	0	1	-360	360	;
	1277	1280	0.0025122418	0.0051470300	5.67694259241360E-008	100	100	100	0	0	1	-360	360	;
	1280	1282	0.0027749546	0.0013221274	1.83926822251266E-007	100	100	100	0	0	1	-360	360	;
	1282	1283	0.0019424682	0.0009254892	1.28748775575886E-007	100	100	100	0	0	1	-360	360	;
	1283	1284	0.0038849364	0.0018509784	2.57497551151773E-007	100	100	100	0	0	1	-360	360	;
	1284	1285	0.0047174228	0.0022476166	3.12675597827153E-007	100	100	100	0	0	1	-360	360	;
	1285	1286	0.0036074409	0.0017187657	2.39104868926646E-007	100	100	100	0	0	1	-360	360	;
	1287	1292	0.0009211553	0.0018872444	2.08154561721832E-008	100	100	100	0	0	1	-360	360	;
	1292	1296	0.0006699312	0.0013725413	1.51385135797696E-008	100	100	100	0	0	1	-360	360	;
	1296	1297	0.0013398623	0.0027450827	3.02770271595392E-008	100	100	100	0	0	1	-360	360	;
	1297	1298	0.0003349656	0.0006862707	7.56925678988480E-009	100	100	100	0	0	1	-360	360	;
	1298	1299	0.0007536726	0.0015441090	1.70000000000000E-008	100	100	100	0	0	1	-360	360	;
	1298	1300	0.0015910865	0.0032597857	3.60000000000000E-008	100	100	100	0	0	1	-360	360	;
	1300	1301	0.0015910865	0.0032597857	3.60000000000000E-008	100	100	100	0	0	1	-360	360	;
	1301	1302	0.0008374139	0.0017156767	1.89231419747120E-008	100	100	100	0	0	1	-360	360	;
	1302	1303	0.0008374139	0.0017156767	1.89231419747120E-008	100	100	100	0	0	1	-360	360	;
	1296	1306	0.0023447590	0.0048038947	5.30000000000000E-008	100	100	100	0	0	1	-360	360	;
	1306	1307	0.0015073451	0.0030882180	3.40616555544816E-008	100	100	100	0	0	1	-360	360	;
	1307	1309	0.0009211553	0.0018872444	2.08154561721832E-008	100	100	100	0	0	1	-360	360	;
	1309	1311	0.0007536726	0.0015441090	1.70000000000000E-008	100	100	100	0	0	1	-360	360	;
	1311	1313	0.0007536726	0.0015441090	1.70000000000000E-008	100	100	100	0	0	1	-360	360	;
	1313	1315	0.0010048967	0.0020588120	2.27077703696544E-008	100	100	100	0	0	1	-360	360	;
	1287	1317	0.0008374139	0.0017156767	1.89231419747120E-008	100	100	100	0	0	1	-360	360	;
	1317	1318	0.0009211553	0.0018872444	2.08154561721832E-008	100	100	100	0	0	1	-360	360	;
	1318	1319	0.0018423107	0.0037744887	4.16309123443664E-008	100	100	100	0	0	1	-360	360	;
	1319	1320	0.0010048967	0.0020588120	2.27077703696544E-008	100	100	100	0	0	1	-360	360	;
	1321	1325	0.0009211553	0.0018872444	2.08154561721832E-008	100	100	100	0	0	1	-360	360	;
	1325	1328	0.0010886381	0.0022303797	2.46000845671256E-008	100	100	100	0	0	1	-360	360	;
	1233	1238	0.0027634660	0.0056617331	6.24463685165496E-008	100	100	100	0	0	1	-360	360	;
	1238	1241	0.0010048967	0.0020588120	2.27077703696544E-008	100	100	100	0	0	1	-360	360	;
	1241	1243	0.0008374139	0.0017156767	1.89231419747120E-008	100	100	100	0	0	1	-360	360	;
	1243	1245	0.0009211553	0.0018872444	2.08154561721832E-008	100	100	100	0	0	1	-360	360	;
	1245	1248	0.0006699312	0.0013725413	1.51385135797696E-008	100	100	100	0	0	1	-360	360	;
	1248	1249	0.0010048967	0.0020588120	2.27077703696544E-008	100	100	100	0	0	1	-360	360	;
	1249	1250	0.0011723795	0.0024019474	2.64923987645968E-008	100	100	100	0	0	1	-360	360	;
	1255	1260	0.0008374139	0.0017156767	1.89231419747120E-008	100	100	100	0	0	1	-360	360	;
	1260	1262	0.0008374139	0.0017156767	1.89231419747120E-008	100	100	100	0	0	1	-360	360	;
	1262	1264	0.0006699312	0.0013725413	1.51385135797696E-008	100	100	100	0	0	1	-360	360	;
	1264	1267	0.0008374139	0.0017156767	1.89231419747120E-008	100	100	100	0	0	1	-360	360	;
	1267	1268	0.0005024484	0.0010294060	1.13538851848272E-008	100	100	100	0	0	1	-360	360	;
	1267	1269	0.0008374139	0.0017156767	1.89231419747120E-008	100	100	100	0	0	1	-360	360	;
	1269	1270	0.0008374139	0.0017156767	1.89231419747120E-008	100	100	100	0	0	1	-360	360	;
	1270	1271	0.0008374139	0.0017156767	1.89231419747120E-008	100	100	100	0	0	1	-360	360	;
	1221	1369	0.0013398623	0.0027450827	3.02770271595392E-008	100	100	100	0	0	1	-360	360	;
	1250	1470	0.0013398623	0.0027450827	3.02770271595392E-008	100	100	100	0	0	1	-360	360	;
	1255	1355	0.0013398623	0.0027450827	3.02770271595392E-008	100	100	100	0	0	1	-360	360	;
	1272	1372	0.0013398623	0.0027450827	3.02770271595392E-008	100	100	100	0	0	1	-360	360	;
	1313	1314	0.0013398623	0.0027450827	3.02770271595392E-008	100	100	100	0	0	1	-360	360	;
	1271	1371	0.0013398623	0.0027450827	3.02770271595392E-008	100	100	100	0	0	1	-360	360	;
	1328	1520	0.0013398623	0.0027450827	3.02770271595392E-008	100	100	100	0	0	1	-360	360	;
	1321	1417	0.0013398623	0.0027450827	3.02770271595392E-008	100	100	100	0	0	1	-360	360	;
	1320	1670	0.0013398623	0.0027450827	3.02770271595392E-008	100	100	100	0	0	1	-360	360	;
	1287	1380	0.0013398623	0.0027450827	3.02770271595392E-008	100	100	100	0	0	1	-360	360	;
...

%copy 2

%new switched branches (connections to previous copy)
	760	2530	0.0010048967	0.0020588120	2.27077703696544E-008	100	100	100	0	0	1	-360	360	;
	705	2580	0.0010048967	0.0020588120	2.27077703696544E-008	100	100	100	0	0	1	-360	360	;
	1925	3800	0.0010048967	0.0020588120	2.27077703696544E-008	100	100	100	0	0	1	-360	360	;


	2281	2287	0.0010048967	0.0020588120	2.27077703696544E-008	100	100	100	0	0	1	-360	360	;
	2287	2288	0.0006699312	0.0013725413	1.51385135797696E-008	100	100	100	0	0	1	-360	360	;
	2288	2293	0.0010048967	0.0020588120	2.27077703696544E-008	100	100	100	0	0	1	-360	360	;
	2332	2333	0.0006699312	0.0013725413	1.51385135797696E-008	100	100	100	0	0	1	-360	360	;
	2333	2334	0.0004187070	0.0008578383	9.46157098735599E-009	100	100	100	0	0	1	-360	360	;
	2334	2335	0.0009211553	0.0018872444	2.08154561721832E-008	100	100	100	0	0	1	-360	360	;
	2335	2336	0.0009211553	0.0018872444	2.08154561721832E-008	100	100	100	0	0	1	-360	360	;
	2334	2337	0.0011723795	0.0024019474	2.64923987645968E-008	100	100	100	0	0	1	-360	360	;
	2337	2340	0.0025122418	0.0051470300	5.67694259241360E-008	100	100	100	0	0	1	-360	360	;
	2340	2342	0.0027749546	0.0013221274	1.83926822251266E-007	100	100	100	0	0	1	-360	360	;
	2342	2343	0.0019424682	0.0009254892	1.28748775575886E-007	100	100	100	0	0	1	-360	360	;
	2343	2344	0.0038849364	0.0018509784	2.57497551151773E-007	100	100	100	0	0	1	-360	360	;
	2344	2345	0.0047174228	0.0022476166	3.12675597827153E-007	100	100	100	0	0	1	-360	360	;
	2345	2346	0.0036074409	0.0017187657	2.39104868926646E-007	100	100	100	0	0	1	-360	360	;
	2347	2352	0.0009211553	0.0018872444	2.08154561721832E-008	100	100	100	0	0	1	-360	360	;
	2352	2356	0.0006699312	0.0013725413	1.51385135797696E-008	100	100	100	0	0	1	-360	360	;
	2356	2357	0.0013398623	0.0027450827	3.02770271595392E-008	100	100	100	0	0	1	-360	360	;
	2357	2358	0.0003349656	0.0006862707	7.56925678988480E-009	100	100	100	0	0	1	-360	360	;
	2358	2359	0.0007536726	0.0015441090	1.70000000000000E-008	100	100	100	0	0	1	-360	360	;
	2358	2360	0.0015910865	0.0032597857	3.60000000000000E-008	100	100	100	0	0	1	-360	360	;
	2360	2361	0.0015910865	0.0032597857	3.60000000000000E-008	100	100	100	0	0	1	-360	360	;
	2361	2362	0.0008374139	0.0017156767	1.89231419747120E-008	100	100	100	0	0	1	-360	360	;
	2362	2363	0.0008374139	0.0017156767	1.89231419747120E-008	100	100	100	0	0	1	-360	360	;
	2356	2366	0.0023447590	0.0048038947	5.30000000000000E-008	100	100	100	0	0	1	-360	360	;
	2366	2367	0.0015073451	0.0030882180	3.40616555544816E-008	100	100	100	0	0	1	-360	360	;
	2367	2369	0.0009211553	0.0018872444	2.08154561721832E-008	100	100	100	0	0	1	-360	360	;
	2369	2371	0.0007536726	0.0015441090	1.70000000000000E-008	100	100	100	0	0	1	-360	360	;
	2371	2373	0.0007536726	0.0015441090	1.70000000000000E-008	100	100	100	0	0	1	-360	360	;
	2373	2375	0.0010048967	0.0020588120	2.27077703696544E-008	100	100	100	0	0	1	-360	360	;
	2347	2377	0.0008374139	0.0017156767	1.89231419747120E-008	100	100	100	0	0	1	-360	360	;
	2377	2378	0.0009211553	0.0018872444	2.08154561721832E-008	100	100	100	0	0	1	-360	360	;
	2378	2379	0.0018423107	0.0037744887	4.16309123443664E-008	100	100	100	0	0	1	-360	360	;
	2379	2380	0.0010048967	0.0020588120	2.27077703696544E-008	100	100	100	0	0	1	-360	360	;
	2381	2385	0.0009211553	0.0018872444	2.08154561721832E-008	100	100	100	0	0	1	-360	360	;
	2385	2388	0.0010886381	0.0022303797	2.46000845671256E-008	100	100	100	0	0	1	-360	360	;
	2293	2298	0.0027634660	0.0056617331	6.24463685165496E-008	100	100	100	0	0	1	-360	360	;
	2298	2301	0.0010048967	0.0020588120	2.27077703696544E-008	100	100	100	0	0	1	-360	360	;
	2301	2303	0.0008374139	0.0017156767	1.89231419747120E-008	100	100	100	0	0	1	-360	360	;
	2303	2305	0.0009211553	0.0018872444	2.08154561721832E-008	100	100	100	0	0	1	-360	360	;
	2305	2308	0.0006699312	0.0013725413	1.51385135797696E-008	100	100	100	0	0	1	-360	360	;
	2308	2309	0.0010048967	0.0020588120	2.27077703696544E-008	100	100	100	0	0	1	-360	360	;
	2309	2310	0.0011723795	0.0024019474	2.64923987645968E-008	100	100	100	0	0	1	-360	360	;
	2315	2320	0.0008374139	0.0017156767	1.89231419747120E-008	100	100	100	0	0	1	-360	360	;
	2320	2322	0.0008374139	0.0017156767	1.89231419747120E-008	100	100	100	0	0	1	-360	360	;
	2322	2324	0.0006699312	0.0013725413	1.51385135797696E-008	100	100	100	0	0	1	-360	360	;
	2324	2327	0.0008374139	0.0017156767	1.89231419747120E-008	100	100	100	0	0	1	-360	360	;
	2327	2328	0.0005024484	0.0010294060	1.13538851848272E-008	100	100	100	0	0	1	-360	360	;
	2327	2329	0.0008374139	0.0017156767	1.89231419747120E-008	100	100	100	0	0	1	-360	360	;
	2329	2330	0.0008374139	0.0017156767	1.89231419747120E-008	100	100	100	0	0	1	-360	360	;
	2330	2331	0.0008374139	0.0017156767	1.89231419747120E-008	100	100	100	0	0	1	-360	360	;
	2281	2429	0.0013398623	0.0027450827	3.02770271595392E-008	100	100	100	0	0	1	-360	360	;
	2310	2530	0.0013398623	0.0027450827	3.02770271595392E-008	100	100	100	0	0	1	-360	360	;
	2315	2415	0.0013398623	0.0027450827	3.02770271595392E-008	100	100	100	0	0	1	-360	360	;
	2332	2432	0.0013398623	0.0027450827	3.02770271595392E-008	100	100	100	0	0	1	-360	360	;
	2373	2374	0.0013398623	0.0027450827	3.02770271595392E-008	100	100	100	0	0	1	-360	360	;
	2331	2431	0.0013398623	0.0027450827	3.02770271595392E-008	100	100	100	0	0	1	-360	360	;
	2388	2580	0.0013398623	0.0027450827	3.02770271595392E-008	100	100	100	0	0	1	-360	360	;
	2381	2477	0.0013398623	0.0027450827	3.02770271595392E-008	100	100	100	0	0	1	-360	360	;
	2380	2730	0.0013398623	0.0027450827	3.02770271595392E-008	100	100	100	0	0	1	-360	360	;
	2347	2440	0.0013398623	0.0027450827	3.02770271595392E-008	100	100	100	0	0	1	-360	360	;
	2340	2341	0.0013398623	0.0027450827	3.02770271595392E-008	100	100	100	0	0	1	-360	360	;
	2429	2430	0.0013398623	0.0027450827	3.02770271595392E-008	100	100	100	0	0	1	-360	360	;
	2298	2415	0.0013398623	0.0027450827	3.02770271595392E-008	100	100	100	0	0	1	-360	360	;
	2293	2432	0.0013398623	0.0027450827	3.02770271595392E-008	100	100	100	0	0	1	-360	360	;
	2334	2374	0.0013398623	0.0027450827	3.02770271595392E-008	100	100	100	0	0	1	-360	360	;
	2431	2580	0.0013398623	0.0027450827	3.02770271595392E-008	100	100	100	0	0	1	-360	360	;
	2377	2477	0.0013398623	0.0027450827	3.02770271595392E-008	100	100	100	0	0	1	-360	360	;
	2340	2440	0.0013398623	0.0027450827	3.02770271595392E-008	100	100	100	0	0	1	-360	360	;
	2430	3140	0.0010048967	0.0020588120	2.27077703696544E-008	100	100	100	0	0	1	-360	360	;
	2375	3190	0.0010048967	0.0020588120	2.27077703696544E-008	100	100	100	0	0	1	-360	360	;
	2891	2897	0.0010048967	0.0020588120	2.27077703696544E-008	100	100	100	0	0	1	-360	360	;
	2897	2898	0.0006699312	0.0013725413	1.51385135797696E-008	100	100	100	0	0	1	-360	360	;
	2898	2903	0.0010048967	0.0020588120	2.27077703696544E-008	100	100	100	0	0	1	-360	360	;
	2942	2943	0.0006699312	0.0013725413	1.51385135797696E-008	100	100	100	0	0	1	-360	360	;
	2943	2944	0.0004187070	0.0008578383	9.46157098735599E-009	100	100	100	0	0	1	-360	360	;
	2944	2945	0.0009211553	0.0018872444	2.08154561721832E-008	100	100	100	0	0	1	-360	360	;
	2945	2946	0.0009211553	0.0018872444	2.08154561721832E-008	100	100	100	0	0	1	-360	360	;
	2944	2947	0.0011723795	0.0024019474	2.64923987645968E-008	100	100	100	0	0	1	-360	360	;
	2947	2950	0.0025122418	0.0051470300	5.67694259241360E-008	100	100	100	0	0	1	-360	360	;
	2950	2952	0.0027749546	0.0013221274	1.83926822251266E-007	100	100	100	0	0	1	-360	360	;
	2952	2953	0.0019424682	0.0009254892	1.28748775575886E-007	100	100	100	0	0	1	-360	360	;
	2953	2954	0.0038849364	0.0018509784	2.57497551151773E-007	100	100	100	0	0	1	-360	360	;
	2954	2955	0.0047174228	0.0022476166	3.12675597827153E-007	100	100	100	0	0	1	-360	360	;
	2955	2956	0.0036074409	0.0017187657	2.39104868926646E-007	100	100	100	0	0	1	-360	360	;
	2957	2962	0.0009211553	0.0018872444	2.08154561721832E-008	100	100	100	0	0	1	-360	360	;
	2962	2966	0.0006699312	0.0013725413	1.51385135797696E-008	100	100	100	0	0	1	-360	360	;
	2966	2967	0.0013398623	0.0027450827	3.02770271595392E-008	100	100	100	0	0	1	-360	360	;
	2967	2968	0.0003349656	0.0006862707	7.56925678988480E-009	100	100	100	0	0	1	-360	360	;
	2968	2969	0.0007536726	0.0015441090	1.70000000000000E-008	100	100	100	0	0	1	-360	360	;
	2968	2970	0.0015910865	0.0032597857	3.60000000000000E-008	100	100	100	0	0	1	-360	360	;
	2970	2971	0.0015910865	0.0032597857	3.60000000000000E-008	100	100	100	0	0	1	-360	360	;
	2971	2972	0.0008374139	0.0017156767	1.89231419747120E-008	100	100	100	0	0	1	-360	360	;
	2972	2973	0.0008374139	0.0017156767	1.89231419747120E-008	100	100	100	0	0	1	-360	360	;
	2966	2976	0.0023447590	0.0048038947	5.30000000000000E-008	100	100	100	0	0	1	-360	360	;
	2976	2977	0.0015073451	0.0030882180	3.40616555544816E-008	100	100	100	0	0	1	-360	360	;
	2977	2979	0.0009211553	0.0018872444	2.08154561721832E-008	100	100	100	0	0	1	-360	360	;
	2979	2981	0.0007536726	0.0015441090	1.70000000000000E-008	100	100	100	0	0	1	-360	360	;
	2981	2983	0.0007536726	0.0015441090	1.70000000000000E-008	100	100	100	0	0	1	-360	360	;
	2983	2985	0.0010048967	0.0020588120	2.27077703696544E-008	100	100	100	0	0	1	-360	360	;
	2957	2987	0.0008374139	0.0017156767	1.89231419747120E-008	100	100	100	0	0	1	-360	360	;
	2987	2988	0.0009211553	0.0018872444	2.08154561721832E-008	100	100	100	0	0	1	-360	360	;
	2988	2989	0.0018423107	0.0037744887	4.16309123443664E-008	100	100	100	0	0	1	-360	360	;
	2989	2990	0.0010048967	0.0020588120	2.27077703696544E-008	100	100	100	0	0	1	-360	360	;
	2991	2995	0.0009211553	0.0018872444	2.08154561721832E-008	100	100	100	0	0	1	-360	360	;
	2995	2998	0.0010886381	0.0022303797	2.46000845671256E-008	100	100	100	0	0	1	-360	360	;
	2903	2908	0.0027634660	0.0056617331	6.24463685165496E-008	100	100	100	0	0	1	-360	360	;
	2908	2911	0.0010048967	0.0020588120	2.27077703696544E-008	100	100	100	0	0	1	-360	360	;
	2911	2913	0.0008374139	0.0017156767	1.89231419747120E-008	100	100	100	0	0	1	-360	360	;
	2913	2915	0.0009211553	0.0018872444	2.08154561721832E-008	100	100	100	0	0	1	-360	360	;
	2915	2918	0.0006699312	0.0013725413	1.51385135797696E-008	100	100	100	0	0	1	-360	360	;
	2918	2919	0.0010048967	0.0020588120	2.27077703696544E-008	100	100	100	0	0	1	-360	360	;
	2919	2920	0.0011723795	0.0024019474	2.64923987645968E-008	100	100	100	0	0	1	-360	360	;
	2925	2930	0.0008374139	0.0017156767	1.89231419747120E-008	100	100	100	0	0	1	-360	360	;
	2930	2932	0.0008374139	0.0017156767	1.89231419747120E-008	100	100	100	0	0	1	-360	360	;
	2932	2934	0.0006699312	0.0013725413	1.51385135797696E-008	100	100	100	0	0	1	-360	360	;
	2934	2937	0.0008374139	0.0017156767	1.89231419747120E-008	100	100	100	0	0	1	-360	360	;
	2937	2938	0.0005024484	0.0010294060	1.13538851848272E-008	100	100	100	0	0	1	-360	360	;
	2937	2939	0.0008374139	0.0017156767	1.89231419747120E-008	100	100	100	0	0	1	-360	360	;
	2939	2940	0.0008374139	0.0017156767	1.89231419747120E-008	100	100	100	0	0	1	-360	360	;
	2940	2941	0.0008374139	0.0017156767	1.89231419747120E-008	100	100	100	0	0	1	-360	360	;
	2891	3039	0.0013398623	0.0027450827	3.02770271595392E-008	100	100	100	0	0	1	-360	360	;
	2920	3140	0.0013398623	0.0027450827	3.02770271595392E-008	100	100	100	0	0	1	-360	360	;
	2925	3025	0.0013398623	0.0027450827	3.02770271595392E-008	100	100	100	0	0	1	-360	360	;
	2942	3042	0.0013398623	0.0027450827	3.02770271595392E-008	100	100	100	0	0	1	-360	360	;
	2983	2984	0.0013398623	0.0027450827	3.02770271595392E-008	100	100	100	0	0	1	-360	360	;
	2941	3041	0.0013398623	0.0027450827	3.02770271595392E-008	100	100	100	0	0	1	-360	360	;
	2998	3190	0.0013398623	0.0027450827	3.02770271595392E-008	100	100	100	0	0	1	-360	360	;
	2991	3087	0.0013398623	0.0027450827	3.02770271595392E-008	100	100	100	0	0	1	-360	360	;
	2990	3340	0.0013398623	0.0027450827	3.02770271595392E-008	100	100	100	0	0	1	-360	360	;
	2957	3050	0.0013398623	0.0027450827	3.02770271595392E-008	100	100	100	0	0	1	-360	360	;
	2950	2951	0.0013398623	0.0027450827	3.02770271595392E-008	100	100	100	0	0	1	-360	360	;
	3039	3040	0.0013398623	0.0027450827	3.02770271595392E-008	100	100	100	0	0	1	-360	360	;
	2908	3025	0.0013398623	0.0027450827	3.02770271595392E-008	100	100	100	0	0	1	-360	360	;
	2903	3042	0.0013398623	0.0027450827	3.02770271595392E-008	100	100	100	0	0	1	-360	360	;
	2944	2984	0.0013398623	0.0027450827	3.02770271595392E-008	100	100	100	0	0	1	-360	360	;
	3041	3190	0.0013398623	0.0027450827	3.02770271595392E-008	100	100	100	0	0	1	-360	360	;
	2987	3087	0.0013398623	0.0027450827	3.02770271595392E-008	100	100	100	0	0	1	-360	360	;
	2950	3050	0.0013398623	0.0027450827	3.02770271595392E-008	100	100	100	0	0	1	-360	360	;
	2580	3750	0.0010048967	0.0020588120	2.27077703696544E-008	100	100	100	0	0	1	-360	360	;
	3595	4410	0.0010048967	0.0020588120	2.27077703696544E-008	100	100	100	0	0	1	-360	360	;
	3501	3507	0.0010048967	0.0020588120	2.27077703696544E-008	100	100	100	0	0	1	-360	360	;
	3507	3508	0.0006699312	0.0013725413	1.51385135797696E-008	100	100	100	0	0	1	-360	360	;
	3508	3513	0.0010048967	0.0020588120	2.27077703696544E-008	100	100	100	0	0	1	-360	360	;
	3552	3553	0.0006699312	0.0013725413	1.51385135797696E-008	100	100	100	0	0	1	-360	360	;
	3553	3554	0.0004187070	0.0008578383	9.46157098735599E-009	100	100	100	0	0	1	-360	360	;
	3554	3555	0.0009211553	0.0018872444	2.08154561721832E-008	100	100	100	0	0	1	-360	360	;
	3555	3556	0.0009211553	0.0018872444	2.08154561721832E-008	100	100	100	0	0	1	-360	360	;
	3554	3557	0.0011723795	0.0024019474	2.64923987645968E-008	100	100	100	0	0	1	-360	360	;
	3557	3560	0.0025122418	0.0051470300	5.67694259241360E-008	100	100	100	0	0	1	-360	360	;
	3560	3562	0.0027749546	0.0013221274	1.83926822251266E-007	100	100	100	0	0	1	-360	360	;
	3562	3563	0.0019424682	0.0009254892	1.28748775575886E-007	100	100	100	0	0	1	-360	360	;
	3563	3564	0.0038849364	0.0018509784	2.57497551151773E-007	100	100	100	0	0	1	-360	360	;
	3564	3565	0.0047174228	0.0022476166	3.12675597827153E-007	100	100	100	0	0	1	-360	360	;
	3565	3566	0.0036074409	0.0017187657	2.39104868926646E-007	100	100	100	0	0	1	-360	360	;
	3567	3572	0.0009211553	0.0018872444	2.08154561721832E-008	100	100	100	0	0	1	-360	360	;
	3572	3576	0.0006699312	0.0013725413	1.51385135797696E-008	100	100	100	0	0	1	-360	360	;
	3576	3577	0.0013398623	0.0027450827	3.02770271595392E-008	100	100	100	0	0	1	-360	360	;
	3577	3578	0.0003349656	0.0006862707	7.56925678988480E-009	100	100	100	0	0	1	-360	360	;
	3578	3579	0.0007536726	0.0015441090	1.70000000000000E-008	100	100	100	0	0	1	-360	360	;
	3578	3580	0.0015910865	0.0032597857	3.60000000000000E-008	100	100	100	0	0	1	-360	360	;
	3580	3581	0.0015910865	0.0032597857	3.60000000000000E-008	100	100	100	0	0	1	-360	360	;
	3581	3582	0.0008374139	0.0017156767	1.89231419747120E-008	100	100	100	0	0	1	-360	360	;
	3582	3583	0.0008374139	0.0017156767	1.89231419747120E-008	100	100	100	0	0	1	-360	360	;
	3576	3586	0.0023447590	0.0048038947	5.30000000000000E-008	100	100	100	0	0	1	-360	360	;
	3586	3587	0.0015073451	0.0030882180	3.40616555544816E-008	100	100	100	0	0	1	-360	360	;
	3587	3589	0.0009211553	0.0018872444	2.08154561721832E-008	100	100	100	0	0	1	-360	360	;
	3589	3591	0.0007536726	0.0015441090	1.70000000000000E-008	100	100	100	0	0	1	-360	360	;
	3591	3593	0.0007536726	0.0015441090	1.70000000000000E-008	100	100	100	0	0	1	-360	360	;
	3593	3595	0.0010048967	0.0020588120	2.27077703696544E-008	100	100	100	0	0	1	-360	360	;
	3567	3597	0.0008374139	0.0017156767	1.89231419747120E-008	100	100	100	0	0	1	-360	360	;
	3597	3598	0.0009211553	0.0018872444	2.08154561721832E-008	100	100	100	0	0	1	-360	360	;
	3598	3599	0.0018423107	0.0037744887	4.16309123443664E-008	100	100	100	0	0	1	-360	360	;
	3599	3600	0.0010048967	0.0020588120	2.27077703696544E-008	100	100	100	0	0	1	-360	360	;
	3601	3605	0.0009211553	0.0018872444	2.08154561721832E-008	100	100	100	0	0	1	-360	360	;
	3605	3608	0.0010886381	0.0022303797	2.46000845671256E-008	100	100	100	0	0	1	-360	360	;
	3513	3518	0.0027634660	0.0056617331	6.24463685165496E-008	100	100	100	0	0	1	-360	360	;
	3518	3521	0.0010048967	0.0020588120	2.27077703696544E-008	100	100	100	0	0	1	-360	360	;
	3521	3523	0.0008374139	0.0017156767	1.89231419747120E-008	100	100	100	0	0	1	-360	360	;
	3523	3525	0.0009211553	0.0018872444	2.08154561721832E-008	100	100	100	0	0	1	-360	360	;
	3525	3528	0.0006699312	0.0013725413	1.51385135797696E-008	100	100	100	0	0	1	-360	360	;
	3528	3529	0.0010048967	0.0020588120	2.27077703696544E-008	100	100	100	0	0	1	-360	360	;
	3529	3530	0.0011723795	0.0024019474	2.64923987645968E-008	100	100	100	0	0	1	-360	360	;
	3535	3540	0.0008374139	0.0017156767	1.89231419747120E-008	100	100	100	0	0	1	-360	360	;
	3540	3542	0.0008374139	0.0017156767	1.89231419747120E-008	100	100	100	0	0	1	-360	360	;
	3542	3544	0.0006699312	0.0013725413	1.51385135797696E-008	100	100	100	0	0	1	-360	360	;
	3544	3547	0.0008374139	0.0017156767	1.89231419747120E-008	100	100	100	0	0	1	-360	360	;
	3547	3548	0.0005024484	0.0010294060	1.13538851848272E-008	100	100	100	0	0	1	-360	360	;
	3547	3549	0.0008374139	0.0017156767	1.89231419747120E-008	100	100	100	0	0	1	-360	360	;
	3549	3550	0.0008374139	0.0017156767	1.89231419747120E-008	100	100	100	0	0	1	-360	360	;
	3550	3551	0.0008374139	0.0017156767	1.89231419747120E-008	100	100	100	0	0	1	-360	360	;
	3501	3649	0.0013398623	0.0027450827	3.02770271595392E-008	100	100	100	0	0	1	-360	360	;
	3530	3750	0.0013398623	0.0027450827	3.02770271595392E-008	100	100	100	0	0	1	-360	360	;
	3535	3635	0.0013398623	0.0027450827	3.02770271595392E-008	100	100	100	0	0	1	-360	360	;
	3552	3652	0.0013398623	0.0027450827	3.02770271595392E-008	100	100	100	0	0	1	-360	360	;
	3593	3594	0.0013398623	0.0027450827	3.02770271595392E-008	100	100	100	0	0	1	-360	360	;
	3551	3651	0.0013398623	0.0027450827	3.02770271595392E-008	100	100	100	0	0	1	-360	360	;
	3608	3800	0.0013398623	0.0027450827	3.02770271595392E-008	100	100	100	0	0	1	-360	360	;
	3601	3697	0.0013398623	0.0027450827	3.02770271595392E-008	100	100	100	0	0	1	-360	360	;
	3600	3950	0.0013398623	0.0027450827	3.02770271595392E-008	100	100	100	0	0	1	-360	360	;
	3567	3660	0.0013398623	0.0027450827	3.02770271595392E-008	100	100	100	0	0	1	-360	360	;
...

];

%%-----  OPF Data  -----%%
%% generator cost data
%	1	startup	shutdown	n	x1	y1	...	xn	yn
%	2	startup	shutdown	n	c(n-1)	...	c0
mpc.gencost = [
	2	0	0	3	0.01	40	0;
	2	0	0	3	0.01	40	0;
	2	0	0	3	0.01	40	0;
	2	0	0	3	0.01	40	0;
%copy 2 (second group of 4)
	2	0	0	3	0.01	40	0;
	2	0	0	3	0.01	40	0;
	2	0	0	3	0.01	40	0;
	2	0	0	3	0.01	40	0;
];
